LAMMPS (23 Jun 2022 - Update 1)
Loaded 1 plugins from /opt/deepmd-kit/lib/deepmd_lmp
variable taskid equal 2
variable TempHi equal 1500
variable Press equal 0
variable rate equal round((1500-300)/(5)*4000)

units           metal
boundary        p p p
atom_style      atomic

neighbor        1.0 bin

read_data	ZIF4.data
Reading data file ...
  orthogonal box = (0 0 0) to (30.8462 30.8084 36.8758)
  reading atoms ...
  2176 atoms
pair_style      deepmd ../CHNZn.pb        # Using a compressed version of DP model for better efficiency
Summary of lammps deepmd module ...
  >>> Info of deepmd-kit:
  installed to:       /opt/deepmd-kit
  source:             v2.2.1
  source branch:       HEAD
  source commit:      3ac8c4c7
  source commit at:   2023-03-16 12:33:24 +0800
  surpport model ver.:1.1
  build variant:      cuda
  build with tf inc:  /opt/deepmd-kit/include;/opt/deepmd-kit/include
  build with tf lib:  /opt/deepmd-kit/lib/libtensorflow_cc.so
  set tf intra_op_parallelism_threads: 0
  set tf inter_op_parallelism_threads: 0
  >>> Info of lammps module:
  use deepmd-kit at:  /opt/deepmd-kitpair_coeff      * *

thermo_style    custom step temp pe ke etotal press vol lx ly lz density spcpu
thermo          1000

timestep        0.00025

velocity	all create 10 2 dist gaussian units box

fix	1 all npt temp 10 10 $(100*dt) iso 0 0 $(1000*dt)
fix	1 all npt temp 10 10 0.025000000000000001388 iso 0 0 $(1000*dt)
fix	1 all npt temp 10 10 0.025000000000000001388 iso 0 0 0.25
fix     2 all temp/berendsen 10 10 $(100*dt)
fix     2 all temp/berendsen 10 10 0.025000000000000001388

run	30000

CITE-CITE-CITE-CITE-CITE-CITE-CITE-CITE-CITE-CITE-CITE-CITE-CITE

Your simulation uses code contributions which should be cited:

- USER-DEEPMD package:

@article{Wang_ComputPhysCommun_2018_v228_p178,
  author = {Wang, Han and Zhang, Linfeng and Han, Jiequn and E, Weinan},
  doi = {10.1016/j.cpc.2018.03.016},
  url = {https://doi.org/10.1016/j.cpc.2018.03.016},
  year = 2018,
  month = {jul},
  publisher = {Elsevier {BV}},
  volume = 228,
  journal = {Comput. Phys. Commun.},
  title = {{DeePMD-kit: A deep learning package for many-body potential energy representation and molecular dynamics}},
  pages = {178--184}
}

CITE-CITE-CITE-CITE-CITE-CITE-CITE-CITE-CITE-CITE-CITE-CITE-CITE

Generated 0 of 6 mixed pair_coeff terms from geometric mixing rule
  update every 1 steps, delay 10 steps, check yes
Step          Temp          PotEng         KinEng         TotEng         Press          Volume           Lx             Ly             Lz          Density         S/CPU
0   10            -480931.76      2.8114082     -480928.95      1721.2755      35043.886      30.8462        30.8084        36.8758        1.2103009      0
Averages over the last 16 of 31 rows, steps 15000 to 30000:
Temp PotEng KinEng TotEng Press Volume Lx Ly Lz Density
9.98763 -480935 2.80793 -480932 0.629534 31502.2 29.7694 29.7329 35.5885 1.34661
Loop time of 254.331 on 1 procs for 30000 steps with 2176 atoms

unfix	1
unfix 	2

#### Heat to 300 K

fix     1 all npt temp 10 300 $(100*dt) iso 0 0 $(1000*dt)
fix     1 all npt temp 10 300 0.025000000000000001388 iso 0 0 $(1000*dt)
fix     1 all npt temp 10 300 0.025000000000000001388 iso 0 0 0.25
run 	5000
Generated 0 of 6 mixed pair_coeff terms from geometric mixing rule
Step          Temp          PotEng         KinEng         TotEng         Press          Volume           Lx             Ly             Lz          Density         S/CPU
30000   10.094055     -480934.75      2.837851      -480931.91      255.56022      30952.332      29.595706      29.559439      35.380868      1.3702892      0
Loop time of 45.0014 on 1 procs for 5000 steps with 2176 atoms

unfix	1

#### Equilibrate structure

fix     1 all npt temp 300 300 $(100*dt) iso 0 0 $(1000*dt)
fix     1 all npt temp 300 300 0.025000000000000001388 iso 0 0 $(1000*dt)
fix     1 all npt temp 300 300 0.025000000000000001388 iso 0 0 0.25
run 	50000
Generated 0 of 6 mixed pair_coeff terms from geometric mixing rule
Step          Temp          PotEng         KinEng         TotEng         Press          Volume           Lx             Ly             Lz          Density         S/CPU
35000   297.71486     -480847.34      83.699798     -480763.64     -327.43633      35878.464      31.089151      31.051053      37.166241      1.1821478      0
Averages over the last 26 of 51 rows, steps 60000 to 85000:
Temp PotEng KinEng TotEng Press Volume Lx Ly Lz Density
299.137 -480847 84.0995 -480763 31.2517 33607.5 30.4183 30.381 36.3642 1.26225
Loop time of 436.436 on 1 procs for 50000 steps with 2176 atoms

unfix	1

write_data      300K2.dat
System init for write_data ...
Generated 0 of 6 mixed pair_coeff terms from geometric mixing rule
write_restart   300K2.rest
System init for write_restart ...
Generated 0 of 6 mixed pair_coeff terms from geometric mixing rule

#### Heat to 1500 K in NPT over 50 ps

dump	1 all custom 1000 md_melt2.lammpstrj id type x y z
fix	1 all npt temp 300 1500 0.025000000000000001388 iso 0 0 $(1000*dt)
fix	1 all npt temp 300 1500 0.025000000000000001388 iso 0 0 0.25
run	200000
Generated 0 of 6 mixed pair_coeff terms from geometric mixing rule
Step          Temp          PotEng         KinEng         TotEng         Press          Volume           Lx             Ly             Lz          Density         S/CPU
85000   303.26021     -480847.06      85.258822     -480761.8      -617.9888       33782.052      30.471436      30.434096      36.42778       1.2555083      0
Averages over the last 101 of 201 rows, steps 185000 to 285000:
Temp PotEng KinEng TotEng Press Volume Lx Ly Lz Density
1204.19 -480570 338.547 -480231 -276.996 35978 31.1149 31.0768 37.1971 1.17987
Loop time of 1814.15 on 1 procs for 200000 steps with 2176 atoms

unfix	1
undump	1

fix	1 all npt temp 1500 1500 0.025000000000000001388 iso 0 0 $(1000*dt)
fix	1 all npt temp 1500 1500 0.025000000000000001388 iso 0 0 0.25
run	200000
Generated 0 of 6 mixed pair_coeff terms from geometric mixing rule
Step          Temp          PotEng         KinEng         TotEng         Press          Volume           Lx             Ly             Lz          Density         S/CPU
285000   1452.5082     -480461.48      408.35933     -480053.12     -892.2363       36795.953      31.351929      31.313509      37.480385      1.1526715      0
Averages over the last 101 of 201 rows, steps 385000 to 485000:
Temp PotEng KinEng TotEng Press Volume Lx Ly Lz Density
1498.69 -480440 421.344 -480019 -127.005 36181.2 31.1739 31.1357 37.2676 1.17307
Loop time of 1871.36 on 1 procs for 200000 steps with 2176 atoms

unfix	1

write_data	melt2.dat
System init for write_data ...
Generated 0 of 6 mixed pair_coeff terms from geometric mixing rule
write_restart	melt2.rest
System init for write_restart ...
Generated 0 of 6 mixed pair_coeff terms from geometric mixing rule

#### Cool to 300 K in NPT

dump	1 all custom 1000 md_quench2.lammpstrj id type x y z
fix	1 all npt temp 1500 300 0.025000000000000001388 iso 0 0 $(1000*dt)
fix	1 all npt temp 1500 300 0.025000000000000001388 iso 0 0 0.25
run	960000
Generated 0 of 6 mixed pair_coeff terms from geometric mixing rule
Step          Temp          PotEng         KinEng         TotEng         Press          Volume           Lx             Ly             Lz          Density         S/CPU
485000   1533.196      -480434.58      431.04397     -480003.54      4272.1839      35489.475      30.976388      30.938428      37.031436      1.1951049      0
Averages over the last 481 of 961 rows, steps 965000 to 1445000:
Temp PotEng KinEng TotEng Press Volume Lx Ly Lz Density
600.028 -480747 168.692 -480578 -46.9616 31807.9 29.8643 29.8277 35.702 1.33408
Loop time of 8847.74 on 1 procs for 960000 steps with 2176 atoms

unfix	1
undump	1

#### Relax structure at 300K in NPT

fix	1 all npt temp 300 300 $(100*dt) iso 0 0 $(1000*dt)
fix	1 all npt temp 300 300 0.025000000000000001388 iso 0 0 $(1000*dt)
fix	1 all npt temp 300 300 0.025000000000000001388 iso 0 0 0.25
run	50000
Generated 0 of 6 mixed pair_coeff terms from geometric mixing rule
Step          Temp          PotEng         KinEng         TotEng         Press          Volume           Lx             Ly             Lz          Density         S/CPU
1445000   291.46518     -480836.55      81.942757     -480754.61     -2044.7534      30474.772      29.442707      29.406627      35.197962      1.3917626      0
Averages over the last 26 of 51 rows, steps 1470000 to 1495000:
Temp PotEng KinEng TotEng Press Volume Lx Ly Lz Density
297.654 -480838 83.6827 -480755 -187.823 30581.9 29.477 29.4409 35.239 1.38695
Loop time of 437.698 on 1 procs for 50000 steps with 2176 atoms

unfix	1

write_data	glass2.dat
System init for write_data ...
Generated 0 of 6 mixed pair_coeff terms from geometric mixing rule
write_restart	glass2.rest
System init for write_restart ...
Generated 0 of 6 mixed pair_coeff terms from geometric mixing rule

#### Extract trajectory for analysis

dump	1 all custom 1000 mdstat2.lammpstrj id type x y z
fix     1 all nvt temp 300 300 $(100*dt)
fix     1 all nvt temp 300 300 0.025000000000000001388
run 	100000
Generated 0 of 6 mixed pair_coeff terms from geometric mixing rule
Step          Temp          PotEng         KinEng         TotEng         Press          Volume           Lx             Ly             Lz          Density         S/CPU
1495000   299.89952     -480836         84.313996     -480751.69      1505.0123      30052.411      29.306055      29.270142      35.034598      1.4113226      0
Averages over the last 51 of 101 rows, steps 1545000 to 1595000:
Temp PotEng KinEng TotEng Press Volume Lx Ly Lz Density
300.088 -480839 84.367 -480754 378.623 30052.4 29.3061 29.2701 35.0346 1.41132
Loop time of 883.605 on 1 procs for 100000 steps with 2176 atoms

unfix	1
undump	1
